test_data/pfdelta/case14/n-1/raw/sample_2.json
{"network":{"bus":{"4":{"zone":1,"bus_i":4,"bus_type":1,"vmax":1.06,"source_id":["bus",4],"area":1,"vmin":0.94,"index":4,"va":0.0,"vm":1.0,"base_kv":1.0},"1":{"zone":1,"bus_i":1,"bus_type":3,"vmax":1.06,"source_id":["bus",1],"area":1,"vmin":0.94,"index":1,"va":0.0,"vm":1.0,"base_kv":1.0},"12":{"zone":1,"bus_i":12,"bus_type":1,"vmax":1.06,"source_id":["bus",12],"area":1,"vmin":0.94,"index":12,"va":0.0,"vm":1.0,"base_kv":1.0},"2":{"zone":1,"bus_i":2,"bus_type":2,"vmax":1.06,"source_id":["bus",2],"area":1,"vmin":0.94,"index":2,"va":0.0,"vm":1.0,"base_kv":1.0},"6":{"zone":1,"bus_i":6,"bus_type":2,"vmax":1.06,"source_id":["bus",6],"area":1,"vmin":0.94,"index":6,"va":0.0,"vm":1.0,"base_kv":1.0},"11":{"zone":1,"bus_i":11,"bus_type":1,"vmax":1.06,"source_id":["bus",11],"area":1,"vmin":0.94,"index":11,"va":0.0,"vm":1.0,"base_kv":1.0},"13":{"zone":1,"bus_i":13,"bus_type":1,"vmax":1.06,"source_id":["bus",13],"area":1,"vmin":0.94,"index":13,"va":0.0,"vm":1.0,"base_kv":1.0},"5":{"zone":1,"bus_i":5,"bus_type":1,"vmax":1.06,"source_id":["bus",5],"area":1,"vmin":0.94,"index":5,"va":0.0,"vm":1.0,"base_kv":1.0},"14":{"zone":1,"bus_i":14,"bus_type":1,"vmax":1.06,"source_id":["bus",14],"area":1,"vmin":0.94,"index":14,"va":0.0,"vm":1.0,"base_kv":1.0},"7":{"zone":1,"bus_i":7,"bus_type":1,"vmax":1.06,"source_id":["bus",7],"area":1,"vmin":0.94,"index":7,"va":0.0,"vm":1.0,"base_kv":1.0},"8":{"zone":1,"bus_i":8,"bus_type":2,"vmax":1.06,"source_id":["bus",8],"area":1,"vmin":0.94,"index":8,"va":0.0,"vm":1.0,"base_kv":1.0},"10":{"zone":1,"bus_i":10,"bus_type":1,"vmax":1.06,"source_id":["bus",10],"area":1,"vmin":0.94,"index":10,"va":0.0,"vm":1.0,"base_kv":1.0},"9":{"zone":1,"bus_i":9,"bus_type":1,"vmax":1.06,"source_id":["bus",9],"area":1,"vmin":0.94,"index":9,"va":0.0,"vm":1.0,"base_kv":1.0},"3":{"zone":1,"bus_i":3,"bus_type":2,"vmax":1.06,"source_id":["bus",3],"area":1,"vmin":0.94,"index":3,"va":0.0,"vm":1.0,"base_kv":1.0}},"source_type":"matpower","name":"pglib_opf_case14_ieee","dcline":{},"source_version":"2","gen":{"4":{"pg":0.0,"model":2,"shutdown":0.0,"startup":0.0,"qg":0.09,"gen_bus":6,"pmax":0.0,"vg":1.0,"mbase":100.0,"source_id":["gen",4],"index":4,"cost":[],"qmax":0.24,"gen_status":1,"qmin":-0.06,"pmin":0.0,"ncost":0},"1":{"pg":1.7,"model":2,"shutdown":0.0,"startup":0.0,"qg":0.05,"gen_bus":1,"pmax":3.4,"vg":1.0,"mbase":100.0,"source_id":["gen",1],"index":1,"cost":[],"qmax":0.1,"gen_status":1,"qmin":0.0,"pmin":0.0,"ncost":2},"5":{"pg":0.0,"model":2,"shutdown":0.0,"startup":0.0,"qg":0.09,"gen_bus":8,"pmax":0.0,"vg":1.0,"mbase":100.0,"source_id":["gen",5],"index":5,"cost":[2326.9494,0.0],"qmax":0.24,"gen_status":1,"qmin":-0.06,"pmin":0.0,"ncost":0},"2":{"pg":0.295,"model":2,"shutdown":0.0,"startup":0.0,"qg":0.0,"gen_bus":2,"pmax":0.59,"vg":1.0,"mbase":100.0,"source_id":["gen",2],"index":2,"cost":[],"qmax":0.3,"gen_status":1,"qmin":-0.3,"pmin":0.0,"ncost":2},"3":{"pg":0.0,"model":2,"shutdown":0.0,"startup":0.0,"qg":0.2,"gen_bus":3,"pmax":0.0,"vg":1.0,"mbase":100.0,"source_id":["gen",3],"index":3,"cost":[792.0951,0.0],"qmax":0.4,"gen_status":1,"qmin":0.0,"pmin":0.0,"ncost":0}},"branch":{"4":{"br_r":0.05811,"rate_a":1.58,"shift":0.0,"rate_b":1.58,"br_x":0.17632,"rate_c":1.58,"g_to":0.0,"g_fr":0.0,"source_id":["branch",4],"b_fr":0.017,"f_bus":2,"br_status":1,"t_bus":4,"b_to":0.017,"index":4,"angmin":-0.5235987755982988,"angmax":0.5235987755982988,"transformer":false,"tap":1.0},"1":{"br_r":0.01938,"rate_a":4.72,"shift":0.0,"rate_b":4.72,"br_x":0.05917,"rate_c":4.72,"g_to":0.0,"g_fr":0.0,"source_id":["branch",1],"b_fr":0.0264,"f_bus":1,"br_status":1,"t_bus":2,"b_to":0.0264,"index":1,"angmin":-0.5235987755982988,"angmax":0.5235987755982988,"transformer":false,"tap":1.0},"12":{"br_r":0.12291,"rate_a":1.04,"shift":0.0,"rate_b":1.04,"br_x":0.25581,"rate_c":1.04,"g_to":0.0,"g_fr":0.0,"source_id":["branch",12],"b_fr":0.0,"f_bus":6,"br_status":1,"t_bus":12,"b_to":0.0,"index":12,"angmin":-0.5235987755982988,"angmax":0.5235987755982988,"transformer":false,"tap":1.0},"20":{"br_r":0.17093,"rate_a":0.76,"shift":0.0,"rate_b":0.76,"br_x":0.34802,"rate_c":0.76,"g_to":0.0,"g_fr":0.0,"source_id":["branch",20],"b_fr":0.0,"f_bus":13,"br_status":1,"t_bus":14,"b_to":0.0,"index":20,"angmin":-0.5235987755982988,"angmax":0.5235987755982988,"transformer":false,"tap":1.0},"2":{"br_r":0.05403,"rate_a":1.28,"shift":0.0,"rate_b":1.28,"br_x":0.22304,"rate_c":1.28,"g_to":0.0,"g_fr":0.0,"source_id":["branch",2],"b_fr":0.0246,"f_bus":1,"br_status":1,"t_bus":5,"b_to":0.0246,"index":2,"angmin":-0.5235987755982988,"angmax":0.5235987755982988,"transformer":false,"tap":1.0},"6":{"br_r":0.06701,"rate_a":1.6,"shift":0.0,"rate_b":1.6,"br_x":0.17103,"rate_c":1.6,"g_to":0.0,"g_fr":0.0,"source_id":["branch",6],"b_fr":0.0064,"f_bus":3,"br_status":1,"t_bus":4,"b_to":0.0064,"index":6,"angmin":-0.5235987755982988,"angmax":0.5235987755982988,"transformer":false,"tap":1.0},"11":{"br_r":0.09498,"rate_a":1.34,"shift":0.0,"rate_b":1.34,"br_x":0.1989,"rate_c":1.34,"g_to":0.0,"g_fr":0.0,"source_id":["branch",11],"b_fr":0.0,"f_bus":6,"br_status":1,"t_bus":11,"b_to":0.0,"index":11,"angmin":-0.5235987755982988,"angmax":0.5235987755982988,"transformer":false,"tap":1.0},"13":{"br_r":0.06615,"rate_a":2.01,"shift":0.0,"rate_b":2.01,"br_x":0.13027,"rate_c":2.01,"g_to":0.0,"g_fr":0.0,"source_id":["branch",13],"b_fr":0.0,"f_bus":6,"br_status":0,"t_bus":13,"b_to":0.0,"index":13,"angmin":-0.5235987755982988,"angmax":0.5235987755982988,"transformer":false,"tap":1.0},"5":{"br_r":0.05695,"rate_a":1.61,"shift":0.0,"rate_b":1.61,"br_x":0.17388,"rate_c":1.61,"g_to":0.0,"g_fr":0.0,"source_id":["branch",5],"b_fr":0.0173,"f_bus":2,"br_status":1,"t_bus":5,"b_to":0.0173,"index":5,"angmin":-0.5235987755982988,"angmax":0.5235987755982988,"transformer":false,"tap":1.0},"15":{"br_r":0.0,"rate_a":2.67,"shift":0.0,"rate_b":2.67,"br_x":0.11001,"rate_c":2.67,"g_to":0.0,"g_fr":0.0,"source_id":["branch",15],"b_fr":0.0,"f_bus":7,"br_status":1,"t_bus":9,"b_to":0.0,"index":15,"angmin":-0.5235987755982988,"angmax":0.5235987755982988,"transformer":false,"tap":1.0},"16":{"br_r":0.03181,"rate_a":3.25,"shift":0.0,"rate_b":3.25,"br_x":0.0845,"rate_c":3.25,"g_to":0.0,"g_fr":0.0,"source_id":["branch",16],"b_fr":0.0,"f_bus":9,"br_status":1,"t_bus":10,"b_to":0.0,"index":16,"angmin":-0.5235987755982988,"angmax":0.5235987755982988,"transformer":false,"tap":1.0},"14":{"br_r":0.0,"rate_a":1.67,"shift":0.0,"rate_b":1.67,"br_x":0.17615,"rate_c":1.67,"g_to":0.0,"g_fr":0.0,"source_id":["branch",14],"b_fr":0.0,"f_bus":7,"br_status":1,"t_bus":8,"b_to":0.0,"index":14,"angmin":-0.5235987755982988,"angmax":0.5235987755982988,"transformer":false,"tap":1.0},"7":{"br_r":0.01335,"rate_a":6.64,"shift":0.0,"rate_b":6.64,"br_x":0.04211,"rate_c":6.64,"g_to":0.0,"g_fr":0.0,"source_id":["branch",7],"b_fr":0.0,"f_bus":4,"br_status":1,"t_bus":5,"b_to":0.0,"index":7,"angmin":-0.5235987755982988,"angmax":0.5235987755982988,"transformer":false,"tap":1.0},"8":{"br_r":0.0,"rate_a":1.41,"shift":0.0,"rate_b":1.41,"br_x":0.20912,"rate_c":1.41,"g_to":0.0,"g_fr":0.0,"source_id":["branch",8],"b_fr":0.0,"f_bus":4,"br_status":1,"t_bus":7,"b_to":0.0,"index":8,"angmin":-0.5235987755982988,"angmax":0.5235987755982988,"transformer":true,"tap":0.978},"17":{"br_r":0.12711,"rate_a":0.99,"shift":0.0,"rate_b":0.99,"br_x":0.27038,"rate_c":0.99,"g_to":0.0,"g_fr":0.0,"source_id":["branch",17],"b_fr":0.0,"f_bus":9,"br_status":1,"t_bus":14,"b_to":0.0,"index":17,"angmin":-0.5235987755982988,"angmax":0.5235987755982988,"transformer":false,"tap":1.0},"10":{"br_r":0.0,"rate_a":1.17,"shift":0.0,"rate_b":1.17,"br_x":0.25202,"rate_c":1.17,"g_to":0.0,"g_fr":0.0,"source_id":["branch",10],"b_fr":0.0,"f_bus":5,"br_status":1,"t_bus":6,"b_to":0.0,"index":10,"angmin":-0.5235987755982988,"angmax":0.5235987755982988,"transformer":true,"tap":0.932},"19":{"br_r":0.22092,"rate_a":0.99,"shift":0.0,"rate_b":0.99,"br_x":0.19988,"rate_c":0.99,"g_to":0.0,"g_fr":0.0,"source_id":["branch",19],"b_fr":0.0,"f_bus":12,"br_status":1,"t_bus":13,"b_to":0.0,"index":19,"angmin":-0.5235987755982988,"angmax":0.5235987755982988,"transformer":false,"tap":1.0},"9":{"br_r":0.0,"rate_a":0.53,"shift":0.0,"rate_b":0.53,"br_x":0.55618,"rate_c":0.53,"g_to":0.0,"g_fr":0.0,"source_id":["branch",9],"b_fr":0.0,"f_bus":4,"br_status":1,"t_bus":9,"b_to":0.0,"index":9,"angmin":-0.5235987755982988,"angmax":0.5235987755982988,"transformer":true,"tap":0.969},"18":{"br_r":0.08205,"rate_a":1.41,"shift":0.0,"rate_b":1.41,"br_x":0.19207,"rate_c":1.41,"g_to":0.0,"g_fr":0.0,"source_id":["branch",18],"b_fr":0.0,"f_bus":10,"br_status":1,"t_bus":11,"b_to":0.0,"index":18,"angmin":-0.5235987755982988,"angmax":0.5235987755982988,"transformer":false,"tap":1.0},"3":{"br_r":0.04699,"rate_a":1.45,"shift":0.0,"rate_b":1.45,"br_x":0.19797,"rate_c":1.45,"g_to":0.0,"g_fr":0.0,"source_id":["branch",3],"b_fr":0.0219,"f_bus":2,"br_status":1,"t_bus":3,"b_to":0.0219,"index":3,"angmin":-0.5235987755982988,"angmax":0.5235987755982988,"transformer":false,"tap":1.0}},"storage":{},"switch":{},"baseMVA":100.0,"per_unit":true,"shunt":{"1":{"source_id":["bus",9],"shunt_bus":9,"status":1,"gs":0.0,"bs":0.19,"index":1}},"load":{"4":{"source_id":["bus",5],"load_bus":5,"status":1,"qd":0.016578742021958758,"pd":0.1272966161228255,"index":4},"1":{"source_id":["bus",2],"load_bus":2,"status":1,"qd":0.28776742145007594,"pd":0.3329130503353742,"index":1},"2":{"source_id":["bus",3],"load_bus":3,"status":1,"qd":0.16144976851713266,"pd":0.45315903092507814,"index":2},"6":{"source_id":["bus",9],"load_bus":9,"status":1,"qd":0.05329217539115917,"pd":0.060018893697129524,"index":6},"11":{"source_id":["bus",14],"load_bus":14,"status":1,"qd":0.09862464613487501,"pd":0.15924150945544066,"index":11},"5":{"source_id":["bus",6],"load_bus":6,"status":1,"qd":0.1333746319446629,"pd":0.35694202821712323,"index":5},"7":{"source_id":["bus",10],"load_bus":10,"status":1,"qd":0.14381424394177555,"pd":0.4933410235665112,"index":7},"8":{"source_id":["bus",11],"load_bus":11,"status":1,"qd":0.27408356336520256,"pd":0.30840668590110554,"index":8},"10":{"source_id":["bus",13],"load_bus":13,"status":1,"qd":0.19724295344890705,"pd":0.4379830273638941,"index":10},"9":{"source_id":["bus",12],"load_bus":12,"status":1,"qd":0.28614275471970063,"pd":0.49196109910549013,"index":9},"3":{"source_id":["bus",4],"load_bus":4,"status":1,"qd":0.47654985666727767,"pd":0.4863937706727567,"index":3}}},"solution":{"solve_time":0.015012979507446289,"optimizer":"Ipopt","termination_status":"LOCALLY_SOLVED","dual_status":"FEASIBLE_POINT","primal_status":"FEASIBLE_POINT","objective":0.0,"solution":{"baseMVA":100.0,"branch":{"4":{"qf":0.35314950590494243,"qt":-0.19733449141452647,"pt":-0.914496910054675,"pf":0.9761933204734282},"1":{"qf":-0.7551554763925334,"qt":1.1863354690213057,"pt":-2.635811962767145,"pf":2.7947125107389676},"12":{"qf":0.7874951001452706,"qt":-0.4465807104514653,"pt":-0.723254444558686,"pf":0.8870548731473484},"20":{"qf":-0.0660174639275073,"qt":0.12103828994391107,"pt":0.2660006196259911,"pf":-0.23897714456425934},"2":{"qf":0.28881240294750754,"qt":0.09727485653338927,"pt":-1.2628818137960618,"pf":1.367425673441719},"6":{"qf":0.4768788501908033,"qt":-0.4367227294422132,"pt":-0.24963414602600692,"pf":0.2699562739347898},"11":{"qf":0.5058521837248908,"qt":-0.444654667590136,"pt":-0.23336723499207043,"pf":0.2625906642654693},"5":{"qf":0.3425473155031589,"qt":-0.22446777007210625,"pt":-0.8210929812081742,"pf":0.8702966503909587},"15":{"qf":0.3268721821382138,"qt":-0.24739721360967407,"pt":-0.7213354386542717,"pf":0.7213354386542717},"16":{"qf":0.017387900817546865,"qt":0.018619214140275734,"pt":-0.5718567792916212,"pf":0.5854116470645003},"14":{"qf":-0.41800077111830125,"qt":0.4534534920411502,"pt":0.0,"pf":0.0},"7":{"qf":0.004274347739838459,"qt":0.005987896168153575,"pt":0.4500906132514696,"pf":-0.4468372065506461},"8":{"qf":0.03620984544881375,"qt":0.09112858898008744,"pt":-0.7213354386542717,"pf":0.7213354386542717},"17":{"qf":0.3343193334007239,"qt":-0.2196629360787861,"pt":-0.4252421290814318,"pf":0.4791439511969414},"19":{"qf":0.16043795573176473,"qt":-0.13122548952139973,"pt":-0.19900588279963477,"pf":0.2312933454531959},"10":{"qf":0.10462627534860465,"qt":0.4958907987578664,"pt":-1.5065875656299408,"pf":1.5065875656299408},"9":{"qf":0.11702317100080974,"qt":-0.004659876725495687,"pt":-0.4032390533042996,"pf":0.4032390533042996},"18":{"qf":-0.16243345808205129,"qt":0.17057110422493346,"pt":-0.07503945090903509,"pf":0.07851575572510991},"3":{"qf":-0.10142754969242922,"qt":0.16617736787045748,"pt":-0.723115304859868,"pf":0.7490759316829184}},"gen":{"4":{"qg":1.9226127145726908,"pg":0.0},"1":{"qg":-0.4663430734450259,"pg":4.162138184180686},"5":{"qg":0.4534534920411502,"pg":0.0},"2":{"qg":2.0683721621870537,"pg":0.2926669901155345},"3":{"qg":0.8045059865783935,"pg":0.0}},"multiinfrastructure":false,"multinetwork":false,"bus":{"4":{"va":-0.3414239333369899,"vm":0.9051918842709558},"1":{"va":0.0,"vm":1.0086001634829993},"12":{"va":-0.878723855590996,"vm":0.7363163292309246},"2":{"va":-0.17651419960934342,"vm":1.0133724972261604},"6":{"va":-0.7058693614038424,"vm":1.027508534290747},"11":{"va":-0.7103665978974273,"vm":0.9053241927840686},"13":{"va":-0.9022207352140144,"vm":0.623540168524907},"5":{"va":-0.31855546986840777,"vm":0.9118215238020339},"14":{"va":-0.7447197148293023,"vm":0.7349947853196791},"7":{"va":-0.5172476110028849,"vm":0.9317375979072602},"8":{"va":-0.5172476110028849,"vm":1.0107628900045973},"10":{"va":-0.6745585492444668,"vm":0.8764992369997378},"9":{"va":-0.6123175441450095,"vm":0.8971953940629064},"3":{"va":-0.32627881639252115,"vm":1.0053122666906666}},"per_unit":true},"objective_lb":null}}